Watershed atmospheric deposition file      .atm file 10/3/2018 12:00:00 AM ArcSWAT 2012.10_4.19




             0.260     1.196     0.000     0.000
             0.260     1.196     0.000     0.000
             0.260     1.196     0.000     0.000
             0.260     1.196     0.000     0.000
             0.260     1.196     0.000     0.000
             0.260     1.196     0.000     0.000
             0.260     1.196     0.000     0.000
             0.260     1.196     0.000     0.000
             0.260     1.196     0.000     0.000
             0.260     1.196     0.000     0.000
             0.260     1.196     0.000     0.000
             0.260     1.196     0.000     0.000
             0.260     1.196     0.000     0.000
             0.260     1.196     0.000     0.000
             0.260     1.196     0.000     0.000
             0.260     1.196     0.000     0.000
             0.260     1.196     0.000     0.000
             0.260     1.196     0.000     0.000
             0.260     1.196     0.000     0.000
             0.260     1.196     0.000     0.000
             0.260     1.196     0.000     0.000
             0.260     1.196     0.000     0.000
             0.260     1.196     0.000     0.000
             0.260     1.196     0.000     0.000
             0.260     1.196     0.000     0.000
             0.260     1.196     0.000     0.000
             0.260     1.196     0.000     0.000
             0.260     1.196     0.000     0.000
             0.260     1.196     0.000     0.000
             0.260     1.196     0.000     0.000
             0.260     1.196     0.000     0.000
             0.260     1.196     0.000     0.000
             0.260     1.196     0.000     0.000
             0.260     1.196     0.000     0.000
             0.260     1.196     0.000     0.000
             0.260     1.196     0.000     0.000
             0.260     1.196     0.000     0.000
             0.260     1.196     0.000     0.000
             0.260     1.196     0.000     0.000
             0.260     1.196     0.000     0.000
             0.260     1.196     0.000     0.000
             0.260     1.196     0.000     0.000
             0.260     1.196     0.000     0.000
             0.260     1.196     0.000     0.000
             0.260     1.196     0.000     0.000
             0.260     1.196     0.000     0.000
             0.260     1.196     0.000     0.000
             0.260     1.196     0.000     0.000
             0.260     1.196     0.000     0.000
             0.260     1.196     0.000     0.000
             0.260     1.196     0.000     0.000
             0.260     1.196     0.000     0.000
             0.260     1.196     0.000     0.000
             0.260     1.196     0.000     0.000
             0.260     1.196     0.000     0.000
             0.260     1.196     0.000     0.000
             0.260     1.196     0.000     0.000
             0.260     1.196     0.000     0.000
             0.260     1.196     0.000     0.000
             0.260     1.196     0.000     0.000
             0.260     1.196     0.000     0.000
             0.260     1.196     0.000     0.000
             0.260     1.196     0.000     0.000
             0.260     1.196     0.000     0.000
             0.260     1.196     0.000     0.000
             0.260     1.196     0.000     0.000
             0.260     1.196     0.000     0.000
             0.260     1.196     0.000     0.000
             0.260     1.196     0.000     0.000
             0.260     1.196     0.000     0.000
             0.260     1.196     0.000     0.000
             0.260     1.196     0.000     0.000
             0.260     1.196     0.000     0.000
             0.260     1.196     0.000     0.000
             0.260     1.196     0.000     0.000
             0.260     1.196     0.000     0.000
             0.260     1.196     0.000     0.000
             0.260     1.196     0.000     0.000
             0.260     1.196     0.000     0.000
             0.260     1.196     0.000     0.000
             0.260     1.196     0.000     0.000
             0.260     1.196     0.000     0.000
             0.260     1.196     0.000     0.000
             0.260     1.196     0.000     0.000
             0.260     1.196     0.000     0.000
             0.260     1.196     0.000     0.000
             0.260     1.196     0.000     0.000
             0.260     1.196     0.000     0.000
             0.260     1.196     0.000     0.000
             0.260     1.196     0.000     0.000
             0.260     1.196     0.000     0.000
             0.260     1.196     0.000     0.000
             0.260     1.196     0.000     0.000
             0.260     1.196     0.000     0.000
             0.260     1.196     0.000     0.000
             0.260     1.196     0.000     0.000
             0.260     1.196     0.000     0.000
             0.260     1.196     0.000     0.000
             0.260     1.196     0.000     0.000
             0.260     1.196     0.000     0.000
             0.260     1.196     0.000     0.000
             0.260     1.196     0.000     0.000
             0.260     1.196     0.000     0.000
             0.260     1.196     0.000     0.000
             0.260     1.196     0.000     0.000
             0.260     1.196     0.000     0.000
             0.260     1.196     0.000     0.000
             0.260     1.196     0.000     0.000
             0.260     1.196     0.000     0.000
             0.260     1.196     0.000     0.000
             0.260     1.196     0.000     0.000
             0.260     1.196     0.000     0.000
             0.260     1.196     0.000     0.000
             0.260     1.196     0.000     0.000
             0.260     1.196     0.000     0.000
             0.260     1.196     0.000     0.000
             0.260     1.196     0.000     0.000
             0.260     1.196     0.000     0.000
             0.260     1.196     0.000     0.000
             0.260     1.196     0.000     0.000
             0.260     1.196     0.000     0.000
             0.260     1.196     0.000     0.000
             0.260     1.196     0.000     0.000
             0.260     1.196     0.000     0.000
             0.260     1.196     0.000     0.000
             0.260     1.196     0.000     0.000
             0.260     1.196     0.000     0.000
             0.260     1.196     0.000     0.000
             0.260     1.196     0.000     0.000
             0.260     1.196     0.000     0.000
             0.260     1.196     0.000     0.000
             0.260     1.196     0.000     0.000
             0.260     1.196     0.000     0.000
             0.260     1.196     0.000     0.000
             0.260     1.196     0.000     0.000
             0.260     1.196     0.000     0.000
             0.260     1.196     0.000     0.000
             0.260     1.196     0.000     0.000
             0.260     1.196     0.000     0.000
             0.260     1.196     0.000     0.000
             0.260     1.196     0.000     0.000
             0.260     1.196     0.000     0.000
             0.260     1.196     0.000     0.000
             0.260     1.196     0.000     0.000
             0.260     1.196     0.000     0.000
             0.260     1.196     0.000     0.000
             0.260     1.196     0.000     0.000
             0.260     1.196     0.000     0.000
             0.260     1.196     0.000     0.000
             0.260     1.196     0.000     0.000
             0.260     1.196     0.000     0.000
             0.260     1.196     0.000     0.000
             0.260     1.196     0.000     0.000
             0.260     1.196     0.000     0.000
             0.260     1.196     0.000     0.000
             0.260     1.196     0.000     0.000
             0.260     1.196     0.000     0.000
             0.260     1.196     0.000     0.000
             0.260     1.196     0.000     0.000
             0.260     1.196     0.000     0.000
             0.260     1.196     0.000     0.000
             0.260     1.196     0.000     0.000
             0.260     1.196     0.000     0.000
             0.260     1.196     0.000     0.000
             0.260     1.196     0.000     0.000
             0.260     1.196     0.000     0.000
             0.260     1.196     0.000     0.000
             0.260     1.196     0.000     0.000
             0.260     1.196     0.000     0.000
             0.260     1.196     0.000     0.000
             0.260     1.196     0.000     0.000
             0.260     1.196     0.000     0.000
             0.260     1.196     0.000     0.000
             0.260     1.196     0.000     0.000
             0.260     1.196     0.000     0.000
             0.260     1.196     0.000     0.000
             0.260     1.196     0.000     0.000
             0.260     1.196     0.000     0.000
             0.260     1.196     0.000     0.000
             0.260     1.196     0.000     0.000
             0.260     1.196     0.000     0.000
             0.260     1.196     0.000     0.000
             0.260     1.196     0.000     0.000
             0.260     1.196     0.000     0.000
             0.260     1.196     0.000     0.000
             0.260     1.196     0.000     0.000
             0.260     1.196     0.000     0.000
             0.260     1.196     0.000     0.000
             0.260     1.196     0.000     0.000
             0.260     1.196     0.000     0.000
             0.260     1.196     0.000     0.000
             0.260     1.196     0.000     0.000
             0.260     1.196     0.000     0.000
             0.260     1.196     0.000     0.000
             0.260     1.196     0.000     0.000
             0.260     1.196     0.000     0.000
             0.260     1.196     0.000     0.000
             0.260     1.196     0.000     0.000
             0.260     1.196     0.000     0.000
             0.260     1.196     0.000     0.000
             0.260     1.196     0.000     0.000
             0.260     1.196     0.000     0.000
             0.260     1.196     0.000     0.000
             0.260     1.196     0.000     0.000
             0.260     1.196     0.000     0.000
             0.260     1.196     0.000     0.000
             0.260     1.196     0.000     0.000
             0.260     1.196     0.000     0.000
             0.260     1.196     0.000     0.000
             0.260     1.196     0.000     0.000
             0.260     1.196     0.000     0.000
             0.260     1.196     0.000     0.000
             0.260     1.196     0.000     0.000
             0.260     1.196     0.000     0.000
             0.260     1.196     0.000     0.000
             0.260     1.196     0.000     0.000
             0.260     1.196     0.000     0.000
             0.260     1.196     0.000     0.000
             0.260     1.196     0.000     0.000
             0.260     1.196     0.000     0.000
             0.260     1.196     0.000     0.000
             0.260     1.196     0.000     0.000
             0.260     1.196     0.000     0.000
             0.260     1.196     0.000     0.000
             0.260     1.196     0.000     0.000
             0.260     1.196     0.000     0.000
             0.260     1.196     0.000     0.000
             0.260     1.196     0.000     0.000
             0.260     1.196     0.000     0.000
             0.260     1.196     0.000     0.000
             0.260     1.196     0.000     0.000
             0.260     1.196     0.000     0.000
             0.260     1.196     0.000     0.000
             0.260     1.196     0.000     0.000
             0.260     1.196     0.000     0.000
             0.260     1.196     0.000     0.000
             0.260     1.196     0.000     0.000
             0.260     1.196     0.000     0.000
             0.260     1.196     0.000     0.000
             0.260     1.196     0.000     0.000
             0.260     1.196     0.000     0.000
             0.260     1.196     0.000     0.000
             0.260     1.196     0.000     0.000
             0.260     1.196     0.000     0.000
             0.260     1.196     0.000     0.000
             0.260     1.196     0.000     0.000
             0.260     1.196     0.000     0.000
             0.260     1.196     0.000     0.000
             0.260     1.196     0.000     0.000
             0.260     1.196     0.000     0.000
             0.260     1.196     0.000     0.000
             0.260     1.196     0.000     0.000
             0.260     1.196     0.000     0.000
             0.260     1.196     0.000     0.000
             0.260     1.196     0.000     0.000
             0.260     1.196     0.000     0.000
             0.260     1.196     0.000     0.000
             0.260     1.196     0.000     0.000
             0.260     1.196     0.000     0.000
             0.260     1.196     0.000     0.000
             0.260     1.196     0.000     0.000
             0.260     1.196     0.000     0.000
             0.260     1.196     0.000     0.000
             0.260     1.196     0.000     0.000
             0.260     1.196     0.000     0.000
             0.260     1.196     0.000     0.000
             0.260     1.196     0.000     0.000
             0.260     1.196     0.000     0.000
             0.260     1.196     0.000     0.000
             0.260     1.196     0.000     0.000
             0.260     1.196     0.000     0.000
             0.260     1.196     0.000     0.000
             0.260     1.196     0.000     0.000
             0.260     1.196     0.000     0.000
             0.260     1.196     0.000     0.000
             0.260     1.196     0.000     0.000
             0.260     1.196     0.000     0.000
             0.260     1.196     0.000     0.000
             0.260     1.196     0.000     0.000
             0.260     1.196     0.000     0.000
             0.260     1.196     0.000     0.000
             0.260     1.196     0.000     0.000
             0.260     1.196     0.000     0.000
             0.260     1.196     0.000     0.000
             0.260     1.196     0.000     0.000
             0.260     1.196     0.000     0.000
             0.260     1.196     0.000     0.000
             0.260     1.196     0.000     0.000
             0.260     1.196     0.000     0.000
             0.260     1.196     0.000     0.000
             0.260     1.196     0.000     0.000
             0.260     1.196     0.000     0.000
             0.260     1.196     0.000     0.000
             0.260     1.196     0.000     0.000
             0.260     1.196     0.000     0.000
             0.260     1.196     0.000     0.000
             0.260     1.196     0.000     0.000
             0.260     1.196     0.000     0.000
             0.260     1.196     0.000     0.000
             0.260     1.196     0.000     0.000
             0.260     1.196     0.000     0.000
             0.260     1.196     0.000     0.000
             0.260     1.196     0.000     0.000
             0.260     1.196     0.000     0.000
             0.260     1.196     0.000     0.000
             0.260     1.196     0.000     0.000
             0.260     1.196     0.000     0.000
             0.260     1.196     0.000     0.000
             0.260     1.196     0.000     0.000
             0.260     1.196     0.000     0.000
             0.260     1.196     0.000     0.000
             0.260     1.196     0.000     0.000
             0.260     1.196     0.000     0.000
             0.260     1.196     0.000     0.000
             0.260     1.196     0.000     0.000
             0.260     1.196     0.000     0.000
             0.260     1.196     0.000     0.000
             0.260     1.196     0.000     0.000
             0.260     1.196     0.000     0.000
             0.260     1.196     0.000     0.000
             0.260     1.196     0.000     0.000
             0.260     1.196     0.000     0.000
             0.260     1.196     0.000     0.000
             0.260     1.196     0.000     0.000
             0.260     1.196     0.000     0.000
             0.260     1.196     0.000     0.000
             0.260     1.196     0.000     0.000
             0.260     1.196     0.000     0.000
             0.260     1.196     0.000     0.000
             0.260     1.196     0.000     0.000
             0.260     1.196     0.000     0.000
             0.260     1.196     0.000     0.000
             0.260     1.196     0.000     0.000
             0.260     1.196     0.000     0.000
             0.260     1.196     0.000     0.000
             0.260     1.196     0.000     0.000
             0.260     1.196     0.000     0.000
             0.260     1.196     0.000     0.000
             0.260     1.196     0.000     0.000
             0.260     1.196     0.000     0.000
             0.260     1.196     0.000     0.000
             0.260     1.196     0.000     0.000
             0.260     1.196     0.000     0.000
             0.260     1.196     0.000     0.000
             0.260     1.196     0.000     0.000
             0.260     1.196     0.000     0.000
             0.260     1.196     0.000     0.000
             0.260     1.196     0.000     0.000
             0.260     1.196     0.000     0.000
             0.260     1.196     0.000     0.000
             0.260     1.196     0.000     0.000
             0.260     1.196     0.000     0.000
             0.260     1.196     0.000     0.000
             0.260     1.196     0.000     0.000
             0.260     1.196     0.000     0.000
             0.260     1.196     0.000     0.000
             0.260     1.196     0.000     0.000
             0.260     1.196     0.000     0.000
             0.260     1.196     0.000     0.000
             0.260     1.196     0.000     0.000
             0.260     1.196     0.000     0.000
             0.260     1.196     0.000     0.000
             0.260     1.196     0.000     0.000
             0.260     1.196     0.000     0.000
             0.260     1.196     0.000     0.000
             0.260     1.196     0.000     0.000
             0.260     1.196     0.000     0.000
             0.260     1.196     0.000     0.000
             0.260     1.196     0.000     0.000
             0.260     1.196     0.000     0.000
             0.260     1.196     0.000     0.000
             0.260     1.196     0.000     0.000
             0.260     1.196     0.000     0.000
             0.260     1.196     0.000     0.000
             0.260     1.196     0.000     0.000
             0.260     1.196     0.000     0.000
             0.260     1.196     0.000     0.000
             0.260     1.196     0.000     0.000
             0.260     1.196     0.000     0.000
             0.260     1.196     0.000     0.000
             0.260     1.196     0.000     0.000
             0.260     1.196     0.000     0.000
             0.260     1.196     0.000     0.000
             0.260     1.196     0.000     0.000
             0.260     1.196     0.000     0.000
             0.260     1.196     0.000     0.000
             0.260     1.196     0.000     0.000
             0.260     1.196     0.000     0.000
             0.260     1.196     0.000     0.000
             0.260     1.196     0.000     0.000
             0.260     1.196     0.000     0.000
             0.260     1.196     0.000     0.000
             0.260     1.196     0.000     0.000
             0.260     1.196     0.000     0.000
             0.260     1.196     0.000     0.000
             0.260     1.196     0.000     0.000
             0.260     1.196     0.000     0.000
             0.260     1.196     0.000     0.000
             0.260     1.196     0.000     0.000
             0.260     1.196     0.000     0.000
             0.260     1.196     0.000     0.000
             0.260     1.196     0.000     0.000
             0.260     1.196     0.000     0.000
             0.260     1.196     0.000     0.000
             0.260     1.196     0.000     0.000
             0.260     1.196     0.000     0.000
             0.260     1.196     0.000     0.000
             0.260     1.196     0.000     0.000
             0.260     1.196     0.000     0.000
             0.260     1.196     0.000     0.000
             0.260     1.196     0.000     0.000
             0.260     1.196     0.000     0.000
             0.260     1.196     0.000     0.000
             0.260     1.196     0.000     0.000
             0.260     1.196     0.000     0.000
             0.260     1.196     0.000     0.000
             0.260     1.196     0.000     0.000
             0.260     1.196     0.000     0.000
             0.260     1.196     0.000     0.000
             0.260     1.196     0.000     0.000
             0.260     1.196     0.000     0.000
             0.260     1.196     0.000     0.000
             0.260     1.196     0.000     0.000
             0.260     1.196     0.000     0.000
             0.260     1.196     0.000     0.000
             0.260     1.196     0.000     0.000
             0.260     1.196     0.000     0.000
             0.260     1.196     0.000     0.000
             0.260     1.196     0.000     0.000
             0.260     1.196     0.000     0.000
             0.260     1.196     0.000     0.000
             0.260     1.196     0.000     0.000
             0.260     1.196     0.000     0.000
             0.260     1.196     0.000     0.000
             0.260     1.196     0.000     0.000
             0.260     1.196     0.000     0.000
             0.260     1.196     0.000     0.000
             0.260     1.196     0.000     0.000
             0.260     1.196     0.000     0.000
             0.260     1.196     0.000     0.000
             0.260     1.196     0.000     0.000
             0.260     1.196     0.000     0.000
             0.260     1.196     0.000     0.000
             0.260     1.196     0.000     0.000
             0.260     1.196     0.000     0.000
             0.260     1.196     0.000     0.000
             0.260     1.196     0.000     0.000
             0.260     1.196     0.000     0.000
             0.260     1.196     0.000     0.000
             0.260     1.196     0.000     0.000
             0.260     1.196     0.000     0.000
             0.260     1.196     0.000     0.000
             0.260     1.196     0.000     0.000
             0.260     1.196     0.000     0.000
             0.260     1.196     0.000     0.000
             0.260     1.196     0.000     0.000
             0.260     1.196     0.000     0.000
             0.260     1.196     0.000     0.000
             0.260     1.196     0.000     0.000
             0.260     1.196     0.000     0.000
             0.260     1.196     0.000     0.000
             0.260     1.196     0.000     0.000
             0.260     1.196     0.000     0.000
             0.260     1.196     0.000     0.000
             0.260     1.196     0.000     0.000
             0.260     1.196     0.000     0.000
             0.260     1.196     0.000     0.000
             0.260     1.196     0.000     0.000
             0.260     1.196     0.000     0.000
             0.260     1.196     0.000     0.000
             0.260     1.196     0.000     0.000
             0.260     1.196     0.000     0.000
             0.260     1.196     0.000     0.000
             0.260     1.196     0.000     0.000
             0.260     1.196     0.000     0.000
             0.260     1.196     0.000     0.000
             0.260     1.196     0.000     0.000
             0.260     1.196     0.000     0.000
             0.260     1.196     0.000     0.000
             0.260     1.196     0.000     0.000
             0.260     1.196     0.000     0.000
             0.260     1.196     0.000     0.000
             0.260     1.196     0.000     0.000
             0.260     1.196     0.000     0.000
             0.260     1.196     0.000     0.000
             0.260     1.196     0.000     0.000
             0.260     1.196     0.000     0.000
             0.260     1.196     0.000     0.000
             0.260     1.196     0.000     0.000
             0.260     1.196     0.000     0.000
             0.260     1.196     0.000     0.000
             0.260     1.196     0.000     0.000
             0.260     1.196     0.000     0.000
             0.260     1.196     0.000     0.000
             0.260     1.196     0.000     0.000
             0.260     1.196     0.000     0.000
             0.260     1.196     0.000     0.000
             0.260     1.196     0.000     0.000
             0.260     1.196     0.000     0.000
             0.260     1.196     0.000     0.000
             0.260     1.196     0.000     0.000
             0.260     1.196     0.000     0.000
             0.260     1.196     0.000     0.000
             0.260     1.196     0.000     0.000
             0.260     1.196     0.000     0.000
             0.260     1.196     0.000     0.000
             0.260     1.196     0.000     0.000
             0.260     1.196     0.000     0.000
             0.260     1.196     0.000     0.000
             0.260     1.196     0.000     0.000
             0.260     1.196     0.000     0.000
             0.260     1.196     0.000     0.000
             0.260     1.196     0.000     0.000
             0.260     1.196     0.000     0.000
             0.260     1.196     0.000     0.000
             0.260     1.196     0.000     0.000
             0.260     1.196     0.000     0.000
             0.260     1.196     0.000     0.000
             0.260     1.196     0.000     0.000
             0.260     1.196     0.000     0.000
             0.260     1.196     0.000     0.000
             0.260     1.196     0.000     0.000
             0.260     1.196     0.000     0.000
             0.260     1.196     0.000     0.000
             0.260     1.196     0.000     0.000
             0.260     1.196     0.000     0.000
             0.260     1.196     0.000     0.000
             0.260     1.196     0.000     0.000
             0.260     1.196     0.000     0.000
             0.260     1.196     0.000     0.000
             0.260     1.196     0.000     0.000
             0.260     1.196     0.000     0.000
             0.260     1.196     0.000     0.000
             0.260     1.196     0.000     0.000
             0.260     1.196     0.000     0.000
             0.260     1.196     0.000     0.000
             0.260     1.196     0.000     0.000
             0.260     1.196     0.000     0.000
             0.260     1.196     0.000     0.000
             0.260     1.196     0.000     0.000
             0.260     1.196     0.000     0.000
             0.260     1.196     0.000     0.000
             0.260     1.196     0.000     0.000
             0.260     1.196     0.000     0.000
             0.260     1.196     0.000     0.000
             0.260     1.196     0.000     0.000
             0.260     1.196     0.000     0.000
             0.260     1.196     0.000     0.000
             0.260     1.196     0.000     0.000
             0.260     1.196     0.000     0.000
             0.260     1.196     0.000     0.000
             0.260     1.196     0.000     0.000
             0.260     1.196     0.000     0.000
             0.260     1.196     0.000     0.000
             0.260     1.196     0.000     0.000
             0.260     1.196     0.000     0.000
             0.260     1.196     0.000     0.000
             0.260     1.196     0.000     0.000
             0.260     1.196     0.000     0.000
             0.260     1.196     0.000     0.000
             0.260     1.196     0.000     0.000
             0.260     1.196     0.000     0.000
             0.260     1.196     0.000     0.000
             0.260     1.196     0.000     0.000
             0.260     1.196     0.000     0.000
             0.260     1.196     0.000     0.000
             0.260     1.196     0.000     0.000
             0.260     1.196     0.000     0.000
             0.260     1.196     0.000     0.000
             0.260     1.196     0.000     0.000
             0.260     1.196     0.000     0.000
             0.260     1.196     0.000     0.000
             0.260     1.196     0.000     0.000
             0.260     1.196     0.000     0.000
             0.260     1.196     0.000     0.000
             0.260     1.196     0.000     0.000
             0.260     1.196     0.000     0.000
             0.260     1.196     0.000     0.000
             0.260     1.196     0.000     0.000
             0.260     1.196     0.000     0.000
             0.260     1.196     0.000     0.000
             0.260     1.196     0.000     0.000
             0.260     1.196     0.000     0.000
             0.260     1.196     0.000     0.000
             0.260     1.196     0.000     0.000
             0.260     1.196     0.000     0.000
             0.260     1.196     0.000     0.000
             0.260     1.196     0.000     0.000
             0.260     1.196     0.000     0.000
             0.260     1.196     0.000     0.000
             0.260     1.196     0.000     0.000
             0.260     1.196     0.000     0.000
             0.260     1.196     0.000     0.000
             0.260     1.196     0.000     0.000
             0.260     1.196     0.000     0.000
             0.260     1.196     0.000     0.000
             0.260     1.196     0.000     0.000